** Profile: "SCHEMATIC1-М╬нс3-1"  [ c:\users\mahdi\desktop\sbu\elec\project\2\3\soal3-SCHEMATIC1-М╬нс3-1.sim ] 

** Creating circuit file "soal3-SCHEMATIC1-М╬нс3-1.sim.cir" 
** WARNING: THIS AUTOMATICALLY GENERATED FILE MAY BE OVERWRITTEN BY SUBSEQUENT SIMULATIONS

*Libraries: 
* Local Libraries :
* From [PSPICE NETLIST] section of C:\Program Files\Orcad\PSpice\PSpice.ini file:
.lib "nom.lib" 

*Analysis directives: 
.TRAN  0 10 0 
.PROBE V(*) I(*) W(*) D(*) NOISE(*) 
.INC ".\soal3-SCHEMATIC1.net" 


.END
